20
	Energy:      14.8080450
C         -1.57572        0.68638       -0.44191
C         -3.00637        1.27747       -0.29245
C         -3.83836        0.06267        0.01668
H         -3.32573        1.76618       -1.21569
H         -3.08052        1.99254        0.52993
C         -3.10524       -0.99477        0.29906
C         -1.63058       -0.70832        0.23422
H         -1.09437       -1.45215       -0.35949
H         -1.20641       -0.68180        1.24125
C         -0.45785        1.55548        0.11378
H         -1.40094        0.52921       -1.51033
O         -0.62612        2.39398        0.97844
N          0.77083        1.25785       -0.36333
C          2.01032        1.91030        0.07109
H          0.85775        0.51573       -1.04100
H          1.80175        2.92372        0.42509
H          2.70408        1.96051       -0.77182
H          2.46137        1.32816        0.87894
H         -4.92531        0.08796        0.00249
H         -3.49176       -1.97891        0.55268
