16
	Energy:       1.7694063
C         -1.64513        0.19383       -0.71558
C         -0.76499        0.82642        0.37626
H         -1.02830       -0.22276       -1.51496
H         -2.30935        0.94506       -1.14864
H         -2.25876       -0.60718       -0.29677
C          0.16908       -0.19309        1.01058
H         -1.40845        1.24769        1.15200
H         -0.19960        1.65788       -0.05021
O          1.28891        0.36279        1.69266
C          1.57243       -0.41871        0.53580
C          2.17475        0.34718       -0.62995
H          2.22901        1.41689       -0.41411
H          1.57760        0.20457       -1.53293
H          3.18732       -0.00900       -0.83082
H         -0.33628       -0.98466        1.55890
H          2.05557       -1.36955        0.74768
