14
	Energy:       0.5657984
C         -2.15375        0.19431       -0.03695
C         -1.57341        1.61854        0.10047
H         -3.24480        0.22822       -0.00639
H         -1.80916       -0.44431        0.77983
H         -1.85276       -0.25620       -0.98570
C         -0.05425        1.69091        0.07068
H         -1.92251        2.05054        1.04104
H         -1.96573        2.23709       -0.70987
O          0.53729        2.74869        0.16880
O          0.56006        0.49305       -0.07213
C          2.00637        0.45323       -0.11207
H          2.32976       -0.58396       -0.23058
H          2.40694        0.85850        0.82145
H          2.36304        1.04810       -0.95768
