16
	Energy:     342.5067963
O         -1.84181        1.03116       -0.86427
C         -2.30002        0.01692       -0.00845
C         -1.04801        0.77045        0.26898
H         -2.23022       -0.96059       -0.53016
H         -3.21761        0.36209        0.51105
N          0.18682        0.13652       -0.15538
H         -1.01514        1.70148        0.87414
C          1.40747        0.68537        0.09477
H          0.13857       -0.76136       -0.66215
O          1.49273        1.74948        0.69499
N          2.53571        0.04886       -0.32361
C          3.85686        0.58687       -0.08257
H          2.45853       -0.84686       -0.82933
H          3.95545        1.58243       -0.56530
H          4.62563       -0.09275       -0.50768
H          4.03321        0.68472        1.00980
