46
	Energy:      71.3611813
C          1.61288        1.59253       -0.21820
C          0.36560        2.38789        0.17645
C         -0.66694        1.31524        0.20903
H          0.16901        3.18341       -0.57401
H          0.42359        2.81756        1.20025
C         -0.07226        0.07765        0.34638
C          1.40883        0.21549        0.41340
H          1.95643       -0.55724       -0.16755
H          1.70034        0.18135        1.48581
C          2.94591        2.23720        0.08467
H          1.53299        1.43996       -1.32164
O          2.98544        3.32415        0.64542
N          4.09699        1.60776       -0.27456
C          5.40562        2.18169       -0.01437
H          4.03248        0.69396       -0.74992
H         -1.73634        1.47409        0.24719
H         -0.62418       -0.83954        0.50302
C          6.51161        1.25178       -0.52559
H          5.53054        2.33400        1.08040
H          5.48388        3.16481       -0.52879
C          7.90800        1.83510       -0.27711
H          6.37175        1.09294       -1.61782
H          6.42498        0.27109       -0.00745
C          8.98554        0.87668       -0.79961
H          8.05435        1.99716        0.81358
H          7.99696        2.81272       -0.80023
C         10.40010        1.43243       -0.58288
H          8.82842        0.70944       -1.88837
H          8.89385       -0.09825       -0.27128
N         11.39546        0.50499       -1.08605
H         10.54833        1.57614        0.50914
H         10.47644        2.39213       -1.13816
C         12.75834        0.65532       -1.07982
H         11.03984       -0.37263       -1.50052
O         13.40641       -0.26331       -1.56350
C         13.55981        1.82990       -0.54586
C         15.05562        1.74224       -0.67730
C         15.85752        2.72558       -0.23951
C         13.05690        2.95103        0.03783
C         13.95097        4.03388        0.51951
C         15.27891        3.92791        0.38824
H         15.52091        0.87397       -1.13370
H         16.93435        2.63906       -0.34616
H         13.52317        4.91817        0.98143
H         15.92960        4.72157        0.74127
H         12.01557        3.13799        0.19248
